tests/main/reference/launch_kGover/outputIIDM.xml
<?xml version="1.0" encoding="UTF-8"?>
<iidm:network xmlns:iidm="http://www.powsybl.org/schema/iidm/1_5" xmlns:apc="http://www.itesla_project.eu/schema/iidm/ext/active_power_control/1_0" id="ieee14bus" caseDate="2017-06-09T10:14:24.146000+02:00" forecastDistance="0" sourceFormat="CIM1">
    <iidm:substation id="_BUS___10_SS" name="BUS   10_SS" country="AF" geographicalTags="_SGR_01">
        <iidm:voltageLevel id="_BUS___10_VL" name="BUS   10_VL" nominalV="13.800000000000001" topologyKind="BUS_BREAKER">
            <iidm:busBreakerTopology>
                <iidm:bus id="_BUS___10_TN" v="14.503587808607991" angle="-4.7843890463126657"/>
            </iidm:busBreakerTopology>
            <iidm:load id="_LOAD__10_EC" name="LOAD  10" loadType="UNDEFINED" p0="9" q0="5.7999999999999998" bus="_BUS___10_TN" connectableBus="_BUS___10_TN" p="9" q="5.7999999999999998"/>
        </iidm:voltageLevel>
    </iidm:substation>
    <iidm:substation id="_BUS___11_SS" name="BUS   11_SS" country="AF" geographicalTags="_SGR_01">
        <iidm:voltageLevel id="_BUS___11_VL" name="BUS   11_VL" nominalV="13.800000000000001" topologyKind="BUS_BREAKER">
            <iidm:busBreakerTopology>
                <iidm:bus id="_BUS___11_TN" v="14.585309952093709" angle="-4.477724880869749"/>
            </iidm:busBreakerTopology>
            <iidm:load id="_LOAD__11_EC" name="LOAD  11" loadType="UNDEFINED" p0="3.5" q0="1.8" bus="_BUS___11_TN" connectableBus="_BUS___11_TN" p="3.5000000000000004" q="1.8000000000000003"/>
        </iidm:voltageLevel>
    </iidm:substation>
    <iidm:substation id="_BUS___12_SS" name="BUS   12_SS" country="AF" geographicalTags="_SGR_01">
        <iidm:voltageLevel id="_BUS___12_VL" name="BUS   12_VL" nominalV="13.800000000000001" topologyKind="BUS_BREAKER">
            <iidm:busBreakerTopology>
                <iidm:bus id="_BUS___12_TN" v="14.561602084186145" angle="-4.7626898964290367"/>
            </iidm:busBreakerTopology>
            <iidm:load id="_LOAD__12_EC" name="LOAD  12" loadType="UNDEFINED" p0="6.0999999999999996" q0="1.6000000000000001" bus="_BUS___12_TN" connectableBus="_BUS___12_TN" p="6.0999999999999996" q="1.6000000000000001"/>
        </iidm:voltageLevel>
    </iidm:substation>
    <iidm:substation id="_BUS___13_SS" name="BUS   13_SS" country="AF" geographicalTags="_SGR_01">
        <iidm:voltageLevel id="_BUS___13_VL" name="BUS   13_VL" nominalV="13.800000000000001" topologyKind="BUS_BREAKER">
            <iidm:busBreakerTopology>
                <iidm:bus id="_BUS___13_TN" v="14.495267764824121" angle="-4.8433807710016659"/>
            </iidm:busBreakerTopology>
            <iidm:load id="_LOAD__13_EC" name="LOAD  13" loadType="UNDEFINED" p0="13.5" q0="5.7999999999999998" bus="_BUS___13_TN" connectableBus="_BUS___13_TN" p="13.5" q="5.7999999999999998"/>
        </iidm:voltageLevel>
    </iidm:substation>
    <iidm:substation id="_BUS___14_SS" name="BUS   14_SS" country="AF" geographicalTags="_SGR_01">
        <iidm:voltageLevel id="_BUS___14_VL" name="BUS   14_VL" nominalV="13.800000000000001" topologyKind="BUS_BREAKER">
            <iidm:busBreakerTopology>
                <iidm:bus id="_BUS___14_TN" v="14.290313415207374" angle="-5.7207465510014615"/>
            </iidm:busBreakerTopology>
            <iidm:load id="_LOAD__14_EC" name="LOAD  14" loadType="UNDEFINED" p0="14.9" q0="5" bus="_BUS___14_TN" connectableBus="_BUS___14_TN" p="14.899999999999999" q="5"/>
        </iidm:voltageLevel>
    </iidm:substation>
    <iidm:substation id="_BUS____1_SS" name="BUS    1_SS" country="AF" geographicalTags="_SGR_01">
        <iidm:voltageLevel id="_BUS____1_VL" name="BUS    1_VL" nominalV="69" topologyKind="BUS_BREAKER">
            <iidm:busBreakerTopology>
                <iidm:bus id="_BUS____1_TN" v="73.140000000006211" angle="10.312883589412182"/>
            </iidm:busBreakerTopology>
            <iidm:generator id="_GEN____1_SM" name="GEN    1" energySource="OTHER" minP="-9999" maxP="9999" voltageRegulatorOn="true" targetP="232.34630000000001" targetV="73.140000000000001" targetQ="-16.759" bus="_BUS____1_TN" connectableBus="_BUS____1_TN" p="-232.39297195968751" q="16.549311828070163">
                <iidm:minMaxReactiveLimits minQ="-999" maxQ="999"/>
            </iidm:generator>
        </iidm:voltageLevel>
    </iidm:substation>
    <iidm:substation id="_BUS____2_SS" name="BUS    2_SS" country="AF" geographicalTags="_SGR_01">
        <iidm:voltageLevel id="_BUS____2_VL" name="BUS    2_VL" nominalV="69" topologyKind="BUS_BREAKER">
            <iidm:busBreakerTopology>
                <iidm:bus id="_BUS____2_TN" v="72.105000000000402" angle="5.3303123482283725"/>
            </iidm:busBreakerTopology>
            <iidm:generator id="_GEN____2_SM" name="GEN    2" energySource="OTHER" minP="-9999" maxP="9999" voltageRegulatorOn="true" targetP="40" targetV="72.105000000000004" targetQ="42.399999999999999" bus="_BUS____2_TN" connectableBus="_BUS____2_TN" p="-40" q="-43.556719853884559">
                <iidm:minMaxReactiveLimits minQ="-40" maxQ="50"/>
            </iidm:generator>
            <iidm:load id="_LOAD___2_EC" name="LOAD   2" loadType="UNDEFINED" p0="21.699999999999999" q0="12.699999999999999" bus="_BUS____2_TN" connectableBus="_BUS____2_TN" p="21.699717862428866" q="12.699724797878314"/>
        </iidm:voltageLevel>
    </iidm:substation>
    <iidm:substation id="_BUS____3_SS" name="BUS    3_SS" country="AF" geographicalTags="_SGR_01">
        <iidm:voltageLevel id="_BUS____3_VL" name="BUS    3_VL" nominalV="69" topologyKind="BUS_BREAKER">
            <iidm:busBreakerTopology>
                <iidm:bus id="_BUS____3_TN" v="69.690000000000097" angle="-2.4121977721682106"/>
            </iidm:busBreakerTopology>
            <iidm:generator id="_GEN____3_SM" name="GEN    3" energySource="OTHER" minP="-9999" maxP="9999" voltageRegulatorOn="true" targetP="0" targetV="69.689999999999998" targetQ="23.399999999999999" bus="_BUS____3_TN" connectableBus="_BUS____3_TN" p="-0" q="-25.075312745746874">
                <iidm:minMaxReactiveLimits minQ="0" maxQ="40"/>
            </iidm:generator>
            <iidm:load id="_LOAD___3_EC" name="LOAD   3" loadType="UNDEFINED" p0="94.200000000000003" q0="19" bus="_BUS____3_TN" connectableBus="_BUS____3_TN" p="94.200000000000188" q="19.000000000000064"/>
        </iidm:voltageLevel>
    </iidm:substation>
    <iidm:substation id="_BUS____4_SS" name="BUS    4_SS" country="AF" geographicalTags="_SGR_01">
        <iidm:voltageLevel id="_BUS____9_VL" name="BUS    9_VL" nominalV="13.800000000000001" topologyKind="BUS_BREAKER">
            <iidm:busBreakerTopology>
                <iidm:bus id="_BUS____9_TN" v="14.571857775360481" angle="-4.6256207033982699"/>
            </iidm:busBreakerTopology>
            <iidm:load id="_LOAD___9_EC" name="LOAD   9" loadType="UNDEFINED" p0="29.5" q0="16.600000000000001" bus="_BUS____9_TN" connectableBus="_BUS____9_TN" p="29.5" q="16.600000000000001"/>
            <iidm:shunt id="_BANK___9_SC" name="BANK   9" sectionCount="1" voltageRegulatorOn="false" bus="_BUS____9_TN" connectableBus="_BUS____9_TN" q="-21.184853584518525">
                <iidm:shuntLinearModel bPerSection="0.099768999999999997" maximumSectionCount="1"/>
            </iidm:shunt>
        </iidm:voltageLevel>
        <iidm:voltageLevel id="_BUS____7_VL" name="BUS    7_VL" nominalV="13.800000000000001" topologyKind="BUS_BREAKER">
            <iidm:busBreakerTopology>
                <iidm:bus id="_BUS____7_TN" v="14.64896933050213" angle="-3.0467266072247288"/>
            </iidm:busBreakerTopology>
        </iidm:voltageLevel>
        <iidm:voltageLevel id="_BUS____4_VL" name="BUS    4_VL" nominalV="69" topologyKind="BUS_BREAKER">
            <iidm:busBreakerTopology>
                <iidm:bus id="_BUS____4_TN" v="70.219290465989104" angle="0"/>
            </iidm:busBreakerTopology>
            <iidm:load id="_LOAD___4_EC" name="LOAD   4" loadType="UNDEFINED" p0="47.799999999999997" q0="-3.8999999999999999" bus="_BUS____4_TN" connectableBus="_BUS____4_TN" p="47.799998776873416" q="-3.8999998336752566"/>
        </iidm:voltageLevel>
        <iidm:twoWindingsTransformer id="_BUS____4-BUS____9-1_PT" name="BUS    4-BUS    9-1" r="0" x="1.0591881000000001" g="0" b="0" ratedU1="69" ratedU2="13.800000000000001" bus1="_BUS____4_TN" connectableBus1="_BUS____4_TN" voltageLevelId1="_BUS____4_VL" bus2="_BUS____9_TN" connectableBus2="_BUS____9_TN" voltageLevelId2="_BUS____9_VL" p1="16.079775601767146" q1="-0.42761594934887265" p2="-16.079775601767142" q2="1.7323284246155035">
            <iidm:ratioTapChanger lowTapPosition="1" tapPosition="4" loadTapChangingCapabilities="false">
                <iidm:step r="0" x="0" g="0" b="0" rho="1.1111112000000001"/>
                <iidm:step r="0" x="0" g="0" b="0" rho="1.0834235999999999"/>
                <iidm:step r="0" x="0" g="0" b="0" rho="1.0570824999999999"/>
                <iidm:step r="0" x="0" g="0" b="0" rho="1.0319917000000001"/>
                <iidm:step r="0" x="0" g="0" b="0" rho="1.015744"/>
                <iidm:step r="0" x="0" g="0" b="0" rho="1"/>
                <iidm:step r="0" x="0" g="0" b="0" rho="0.98039220000000005"/>
                <iidm:step r="0" x="0" g="0" b="0" rho="0.96153849999999996"/>
                <iidm:step r="0" x="0" g="0" b="0" rho="0.94339629999999997"/>
                <iidm:step r="0" x="0" g="0" b="0" rho="0.92592589999999997"/>
                <iidm:step r="0" x="0" g="0" b="0" rho="0.90909090000000004"/>
            </iidm:ratioTapChanger>
            <iidm:currentLimits1 permanentLimit="836.74000000000001"/>
            <iidm:currentLimits2 permanentLimit="4183.6999999999998"/>
        </iidm:twoWindingsTransformer>
        <iidm:twoWindingsTransformer id="_BUS____4-BUS____7-1_PT" name="BUS    4-BUS    7-1" r="0" x="0.39824801999999998" g="0" b="0" ratedU1="69" ratedU2="13.800000000000001" bus1="_BUS____4_TN" connectableBus1="_BUS____4_TN" voltageLevelId1="_BUS____4_VL" bus2="_BUS____7_TN" connectableBus2="_BUS____7_TN" voltageLevelId2="_BUS____7_VL" p1="28.074184409927831" q1="-9.6810925289968921" p2="-28.074184409927831" q2="11.384308432512086">
            <iidm:ratioTapChanger lowTapPosition="1" tapPosition="5" loadTapChangingCapabilities="false">
                <iidm:step r="0" x="0" g="0" b="0" rho="1.1111112000000001"/>
                <iidm:step r="0" x="0" g="0" b="0" rho="1.0875475999999999"/>
                <iidm:step r="0" x="0" g="0" b="0" rho="1.0649626999999999"/>
                <iidm:step r="0" x="0" g="0" b="0" rho="1.0432965999999999"/>
                <iidm:step r="0" x="0" g="0" b="0" rho="1.0224948"/>
                <iidm:step r="0" x="0" g="0" b="0" rho="1"/>
                <iidm:step r="0" x="0" g="0" b="0" rho="0.98039215999999996"/>
                <iidm:step r="0" x="0" g="0" b="0" rho="0.96153849999999996"/>
                <iidm:step r="0" x="0" g="0" b="0" rho="0.94339629999999997"/>
                <iidm:step r="0" x="0" g="0" b="0" rho="0.92592589999999997"/>
                <iidm:step r="0" x="0" g="0" b="0" rho="0.90909090000000004"/>
            </iidm:ratioTapChanger>
            <iidm:currentLimits1 permanentLimit="836.74000000000001"/>
            <iidm:currentLimits2 permanentLimit="4183.6999999999998"/>
        </iidm:twoWindingsTransformer>
    </iidm:substation>
    <iidm:substation id="_BUS____5_SS" name="BUS    5_SS" country="AF" geographicalTags="_SGR_01">
        <iidm:voltageLevel id="_BUS____6_VL" name="BUS    6_VL" nominalV="13.800000000000001" topologyKind="BUS_BREAKER">
            <iidm:busBreakerTopology>
                <iidm:bus id="_BUS____6_TN" v="14.766000000000005" angle="-3.9080519508079776"/>
            </iidm:busBreakerTopology>
            <iidm:generator id="_GEN____6_SM" name="GEN    6" energySource="OTHER" minP="-9999" maxP="9999" voltageRegulatorOn="true" targetP="0" targetV="14.766" targetQ="12.199999999999999" bus="_BUS____6_TN" connectableBus="_BUS____6_TN" p="-0" q="-12.730966809161606">
                <iidm:minMaxReactiveLimits minQ="-6" maxQ="24"/>
            </iidm:generator>
            <iidm:load id="_LOAD___6_EC" name="LOAD   6" loadType="UNDEFINED" p0="11.199999999999999" q0="7.5" bus="_BUS____6_TN" connectableBus="_BUS____6_TN" p="11.199999999999999" q="7.5"/>
        </iidm:voltageLevel>
        <iidm:voltageLevel id="_BUS____5_VL" name="BUS    5_VL" nominalV="69" topologyKind="BUS_BREAKER">
            <iidm:busBreakerTopology>
                <iidm:bus id="_BUS____5_TN" v="70.346457137699815" angle="1.5390501796196778"/>
            </iidm:busBreakerTopology>
            <iidm:load id="_LOAD___5_EC" name="LOAD   5" loadType="UNDEFINED" p0="7.5999999999999996" q0="1.6000000000000001" bus="_BUS____5_TN" connectableBus="_BUS____5_TN" p="7.6000011514866976" q="1.6000004040304407"/>
        </iidm:voltageLevel>
        <iidm:twoWindingsTransformer id="_BUS____5-BUS____6-1_PT" name="BUS    5-BUS    6-1" r="0" x="0.47994804000000002" g="0" b="0" ratedU1="69" ratedU2="13.800000000000001" bus1="_BUS____5_TN" connectableBus1="_BUS____5_TN" voltageLevelId1="_BUS____5_VL" bus2="_BUS____6_TN" connectableBus2="_BUS____6_TN" voltageLevelId2="_BUS____6_VL" p1="44.087293823497411" q1="12.470674933084474" p2="-44.087293823497411" q2="-8.0495082993229055">
            <iidm:ratioTapChanger lowTapPosition="1" tapPosition="3" loadTapChangingCapabilities="false">
                <iidm:step r="0" x="0" g="0" b="0" rho="1.1111112000000001"/>
                <iidm:step r="0" x="0" g="0" b="0" rho="1.0917030999999999"/>
                <iidm:step r="0" x="0" g="0" b="0" rho="1.0729614000000001"/>
                <iidm:step r="0" x="0" g="0" b="0" rho="1.0474859999999999"/>
                <iidm:step r="0" x="0" g="0" b="0" rho="1.0231923999999999"/>
                <iidm:step r="0" x="0" g="0" b="0" rho="1"/>
                <iidm:step r="0" x="0" g="0" b="0" rho="0.98039220000000005"/>
                <iidm:step r="0" x="0" g="0" b="0" rho="0.96153849999999996"/>
                <iidm:step r="0" x="0" g="0" b="0" rho="0.94339629999999997"/>
                <iidm:step r="0" x="0" g="0" b="0" rho="0.92592589999999997"/>
                <iidm:step r="0" x="0" g="0" b="0" rho="0.90909090000000004"/>
            </iidm:ratioTapChanger>
            <iidm:currentLimits1 permanentLimit="836.74000000000001"/>
            <iidm:currentLimits2 permanentLimit="4183.6999999999998"/>
        </iidm:twoWindingsTransformer>
    </iidm:substation>
    <iidm:substation id="_BUS____8_SS" name="BUS    8_SS" country="AF" geographicalTags="_SGR_01">
        <iidm:voltageLevel id="_BUS____8_VL" name="BUS    8_VL" nominalV="13.800000000000001" topologyKind="BUS_BREAKER">
            <iidm:busBreakerTopology>
                <iidm:bus id="_BUS____8_TN" v="15.041999999999996" angle="-3.0467266072247292"/>
            </iidm:busBreakerTopology>
            <iidm:generator id="_GEN____8_SM" name="GEN    8" energySource="OTHER" minP="-9999" maxP="9999" voltageRegulatorOn="true" targetP="0" targetV="15.042" targetQ="17.399999999999999" bus="_BUS____8_TN" connectableBus="_BUS____8_TN" p="-0" q="-17.623464289593045">
                <iidm:minMaxReactiveLimits minQ="-6" maxQ="24"/>
            </iidm:generator>
        </iidm:voltageLevel>
    </iidm:substation>
    <iidm:line id="_BUS___10-BUS___11-1_AC" name="BUS   10-BUS   11-1" r="0.15625600000000001" x="0.36577799999999999" g1="0" b1="0" g2="0" b2="0" bus1="_BUS___10_TN" connectableBus1="_BUS___10_TN" voltageLevelId1="_BUS___10_VL" bus2="_BUS___11_TN" connectableBus2="_BUS___11_TN" voltageLevelId2="_BUS___11_VL" p1="-3.7853043741565688" q1="-1.61507191766206" p2="3.7978855706960348" q2="1.6445231061464269">
        <iidm:currentLimits1 permanentLimit="4183.6999999999998"/>
    </iidm:line>
    <iidm:line id="_BUS___12-BUS___13-1_AC" name="BUS   12-BUS   13-1" r="0.42071999999999998" x="0.38065100000000002" g1="0" b1="0" g2="0" b2="0" bus1="_BUS___12_TN" connectableBus1="_BUS___12_TN" voltageLevelId1="_BUS___12_VL" bus2="_BUS___13_TN" connectableBus2="_BUS___13_TN" voltageLevelId2="_BUS___13_VL" p1="1.6142511866936877" q1="0.75395972409427814" p2="-1.6079529695271697" q2="-0.74826134354984875">
        <iidm:currentLimits1 permanentLimit="4183.6999999999998"/>
    </iidm:line>
    <iidm:line id="_BUS___13-BUS___14-1_AC" name="BUS   13-BUS   14-1" r="0.325519" x="0.66276900000000005" g1="0" b1="0" g2="0" b2="0" bus1="_BUS___13_TN" connectableBus1="_BUS___13_TN" voltageLevelId1="_BUS___13_VL" bus2="_BUS___14_TN" connectableBus2="_BUS___14_TN" voltageLevelId2="_BUS___14_VL" p1="5.6438423820501837" q1="1.7471783829149294" p2="-5.589764605057737" q2="-1.6370739829275043">
        <iidm:currentLimits1 permanentLimit="4183.6999999999998"/>
    </iidm:line>
    <iidm:line id="_BUS____1-BUS____2-1_AC" name="BUS    1-BUS    2-1" r="0.922682" x="2.8170799999999998" g1="0" b1="0.00055450499999999995" g2="0" b2="0.00055450499999999995" bus1="_BUS____1_TN" connectableBus1="_BUS____1_TN" voltageLevelId1="_BUS____1_VL" bus2="_BUS____2_TN" connectableBus2="_BUS____2_TN" voltageLevelId2="_BUS____2_VL" p1="156.88252418449005" q1="-20.404254629475965" p2="-152.5849429544451" q2="27.6761380174175">
        <iidm:currentLimits1 permanentLimit="836.74000000000001"/>
    </iidm:line>
    <iidm:line id="_BUS____1-BUS____5-1_AC" name="BUS    1-BUS    5-1" r="2.5723699999999998" x="10.6189" g1="0" b1="0.00051670000000000004" g2="0" b2="0.00051670000000000004" bus1="_BUS____1_TN" connectableBus1="_BUS____1_TN" voltageLevelId1="_BUS____1_VL" bus2="_BUS____5_TN" connectableBus2="_BUS____5_TN" voltageLevelId2="_BUS____5_VL" p1="75.510447775328899" q1="3.8549428018455303" p2="-72.747568812993222" q2="2.2293699828232962">
        <iidm:currentLimits1 permanentLimit="836.74000000000001"/>
    </iidm:line>
    <iidm:line id="_BUS____2-BUS____3-1_AC" name="BUS    2-BUS    3-1" r="2.23719" x="9.4253499999999999" g1="0" b1="0.00045998749999999998" g2="0" b2="0.00045998749999999998" bus1="_BUS____2_TN" connectableBus1="_BUS____2_TN" voltageLevelId1="_BUS____2_VL" bus2="_BUS____3_TN" connectableBus2="_BUS____3_TN" voltageLevelId2="_BUS____3_VL" p1="73.237590372726288" q1="3.5602303058399212" p2="-70.91432424391175" q2="1.6022062818937408">
        <iidm:currentLimits1 permanentLimit="836.74000000000001"/>
    </iidm:line>
    <iidm:line id="_BUS____2-BUS____4-1_AC" name="BUS    2-BUS    4-1" r="2.7666200000000001" x="8.3946000000000005" g1="0" b1="0.00035706799999999999" g2="0" b2="0.00035706799999999999" bus1="_BUS____2_TN" connectableBus1="_BUS____2_TN" voltageLevelId1="_BUS____2_VL" bus2="_BUS____4_TN" connectableBus2="_BUS____4_TN" voltageLevelId2="_BUS____4_VL" p1="56.131462298629508" q1="-1.5503726576156709" p2="-54.454804725704086" q2="3.0207048435689248">
        <iidm:currentLimits1 permanentLimit="836.74000000000001"/>
    </iidm:line>
    <iidm:line id="_BUS____2-BUS____5-1_AC" name="BUS    2-BUS    5-1" r="2.7113900000000002" x="8.2784300000000002" g1="0" b1="0.000363369" g2="0" b2="0.000363369" bus1="_BUS____2_TN" connectableBus1="_BUS____2_TN" voltageLevelId1="_BUS____2_VL" bus2="_BUS____5_TN" connectableBus2="_BUS____5_TN" voltageLevelId2="_BUS____5_VL" p1="41.51617246043827" q1="1.1709994447319634" p2="-40.612420779066859" q2="-2.0990397346459488">
        <iidm:currentLimits1 permanentLimit="836.74000000000001"/>
    </iidm:line>
    <iidm:line id="_BUS____3-BUS____4-1_AC" name="BUS    3-BUS    4-1" r="3.19035" x="8.1427399999999999" g1="0" b1="0.00013442550000000001" g2="0" b2="0.00013442550000000001" bus1="_BUS____3_TN" connectableBus1="_BUS____3_TN" voltageLevelId1="_BUS____3_VL" bus2="_BUS____4_TN" connectableBus2="_BUS____4_TN" voltageLevelId2="_BUS____4_VL" p1="-23.285675756088416" q1="4.4731064638531546" p2="23.65912066749295" q2="-4.8356440497920739">
        <iidm:currentLimits1 permanentLimit="836.74000000000001"/>
    </iidm:line>
    <iidm:line id="_BUS____4-BUS____5-1_AC" name="BUS    4-BUS    5-1" r="0.63559299999999996" x="2.0048599999999999" g1="0" b1="0" g2="0" b2="0" bus1="_BUS____4_TN" connectableBus1="_BUS____4_TN" voltageLevelId1="_BUS____4_VL" bus2="_BUS____5_TN" connectableBus2="_BUS____5_TN" voltageLevelId2="_BUS____5_VL" p1="-61.158274730356851" q1="15.823647518244059" p2="61.672694617077774" q2="-14.201005585291194">
        <iidm:currentLimits1 permanentLimit="836.74000000000001"/>
    </iidm:line>
    <iidm:line id="_BUS____6-BUS___11-1_AC" name="BUS    6-BUS   11-1" r="0.18088000000000001" x="0.37878499999999998" g1="0" b1="0" g2="0" b2="0" bus1="_BUS____6_TN" connectableBus1="_BUS____6_TN" voltageLevelId1="_BUS____6_VL" bus2="_BUS___11_TN" connectableBus2="_BUS___11_TN" voltageLevelId2="_BUS___11_VL" p1="7.3532587482715659" q1="3.5604813606130445" p2="-7.297885570696037" q2="-3.4445231061462933">
        <iidm:currentLimits1 permanentLimit="4183.6999999999998"/>
    </iidm:line>
    <iidm:line id="_BUS____6-BUS___12-1_AC" name="BUS    6-BUS   12-1" r="0.23407" x="0.48716500000000001" g1="0" b1="0" g2="0" b2="0" bus1="_BUS____6_TN" connectableBus1="_BUS____6_TN" voltageLevelId1="_BUS____6_VL" bus2="_BUS___12_TN" connectableBus2="_BUS___12_TN" voltageLevelId2="_BUS___12_VL" p1="7.786060382601967" q1="2.5034147030522815" p2="-7.7142511866936063" q2="-2.35395972409429">
        <iidm:currentLimits1 permanentLimit="4183.6999999999998"/>
    </iidm:line>
    <iidm:line id="_BUS____6-BUS___13-1_AC" name="BUS    6-BUS   13-1" r="0.125976" x="0.248086" g1="0" b1="0" g2="0" b2="0" bus1="_BUS____6_TN" connectableBus1="_BUS____6_TN" voltageLevelId1="_BUS____6_VL" bus2="_BUS___13_TN" connectableBus2="_BUS___13_TN" voltageLevelId2="_BUS___13_VL" p1="17.747974692623828" q1="7.2165790448190439" p2="-17.535889412523041" q2="-6.7989170393649632">
        <iidm:currentLimits1 permanentLimit="4183.6999999999998"/>
    </iidm:line>
    <iidm:line id="_BUS____7-BUS____8-1_AC" name="BUS    7-BUS    8-1" r="0" x="0.33545999999999998" g1="0" b1="0" g2="0" b2="0" bus1="_BUS____7_TN" connectableBus1="_BUS____7_TN" voltageLevelId1="_BUS____7_VL" bus2="_BUS____8_TN" connectableBus2="_BUS____8_TN" voltageLevelId2="_BUS____8_VL" p1="7.1123662515049091e-15" q1="-17.162982839745244" p2="-7.1123662515049091e-15" q2="17.623464289593034">
        <iidm:currentLimits1 permanentLimit="4183.6999999999998"/>
    </iidm:line>
    <iidm:line id="_BUS____7-BUS____9-1_AC" name="BUS    7-BUS    9-1" r="0" x="0.20950299999999999" g1="0" b1="0" g2="0" b2="0" bus1="_BUS____7_TN" connectableBus1="_BUS____7_TN" voltageLevelId1="_BUS____7_VL" bus2="_BUS____9_TN" connectableBus2="_BUS____9_TN" voltageLevelId2="_BUS____9_VL" p1="28.074184409927827" q1="5.7786744072331597" p2="-28.074184409927831" q2="-4.9766055680337065">
        <iidm:currentLimits1 permanentLimit="4183.6999999999998"/>
    </iidm:line>
    <iidm:line id="_BUS____9-BUS___10-1_AC" name="BUS    9-BUS   10-1" r="0.060579000000000001" x="0.16092200000000001" g1="0" b1="0" g2="0" b2="0" bus1="_BUS____9_TN" connectableBus1="_BUS____9_TN" voltageLevelId1="_BUS____9_VL" bus2="_BUS___10_TN" connectableBus2="_BUS___10_TN" voltageLevelId2="_BUS___10_VL" p1="5.227570516797158" q1="4.2191289308505757" p2="-5.21469562584344" q2="-4.184928082337823">
        <iidm:currentLimits1 permanentLimit="4183.6999999999998"/>
    </iidm:line>
    <iidm:line id="_BUS____9-BUS___14-1_AC" name="BUS    9-BUS   14-1" r="0.24206800000000001" x="0.51491200000000004" g1="0" b1="0" g2="0" b2="0" bus1="_BUS____9_TN" connectableBus1="_BUS____9_TN" voltageLevelId1="_BUS____9_VL" bus2="_BUS___14_TN" connectableBus2="_BUS___14_TN" voltageLevelId2="_BUS___14_VL" p1="9.4263894948978475" q1="3.6100017970861016" p2="-9.3102353949422998" q2="-3.3629260170725885">
        <iidm:currentLimits1 permanentLimit="4183.6999999999998"/>
    </iidm:line>
    <iidm:extension id="_GEN____1_SM">
        <apc:activePowerControl participate="true" droop="4"/>
    </iidm:extension>
    <iidm:extension id="_GEN____2_SM">
        <apc:activePowerControl participate="false" droop="4"/>
    </iidm:extension>
    <iidm:extension id="_GEN____3_SM">
        <apc:activePowerControl participate="true" droop="4"/>
    </iidm:extension>
    <iidm:extension id="_GEN____6_SM">
        <apc:activePowerControl participate="true" droop="4"/>
    </iidm:extension>
    <iidm:extension id="_GEN____8_SM">
        <apc:activePowerControl participate="true" droop="4"/>
    </iidm:extension>
</iidm:network>
